11966254
  -OEChem-09222613443D

 11 10  0     0  0  0  0  0  0999 V2000
   -2.6110    0.0005   -0.4425 O   0  0  0  0  0  0  0  0  0  0  0  0
   -0.8717   -1.3318    0.1932 O   0  0  0  0  0  0  0  0  0  0  0  0
    1.8927   -0.7322    0.8282 O   0  5  0  0  0  0  0  0  0  0  0  0
    1.6857   -0.0108   -1.3275 O   0  0  0  0  0  0  0  0  0  0  0  0
   -0.7605    1.0651    0.4152 C   0  0  0  0  0  0  0  0  0  0  0  0
    0.5695    1.2017    0.3531 C   0  0  0  0  0  0  0  0  0  0  0  0
   -1.3758   -0.2294    0.0607 C   0  0  0  0  0  0  0  0  0  0  0  0
    1.4711    0.0369   -0.0803 C   0  0  0  0  0  0  0  0  0  0  0  0
   -1.4006    1.8990    0.6784 H   0  0  0  0  0  0  0  0  0  0  0  0
    1.0118    2.1655    0.5953 H   0  0  0  0  0  0  0  0  0  0  0  0
   -3.0657   -0.8313   -0.6947 H   0  0  0  0  0  0  0  0  0  0  0  0
  1  7  1  0  0  0  0
  1 11  1  0  0  0  0
  2  7  2  0  0  0  0
  3  8  1  0  0  0  0
  4  8  2  0  0  0  0
  5  6  2  0  0  0  0
  5  7  1  0  0  0  0
  5  9  1  0  0  0  0
  6  8  1  0  0  0  0
  6 10  1  0  0  0  0
M  CHG  1   3  -1
M  END
> <PUBCHEM_COMPOUND_CID>
11966254

> <PUBCHEM_CONFORMER_RMSD>
0.4

> <PUBCHEM_CONFORMER_DIVERSEORDER>
1
4
3
5
2

> <PUBCHEM_MMFF94_PARTIAL_CHARGES>
11
1 -0.65
10 0.15
11 0.5
2 -0.57
3 -0.9
4 -0.9
5 -0.14
6 -0.4
7 0.71
8 1.05
9 0.15

> <PUBCHEM_EFFECTIVE_ROTOR_COUNT>
2

> <PUBCHEM_PHARMACOPHORE_FEATURES>
6
1 1 acceptor
1 2 acceptor
1 3 acceptor
1 4 acceptor
3 1 2 7 anion
3 3 4 8 anion

> <PUBCHEM_HEAVY_ATOM_COUNT>
8

> <PUBCHEM_ATOM_DEF_STEREO_COUNT>
0

> <PUBCHEM_ATOM_UDEF_STEREO_COUNT>
0

> <PUBCHEM_BOND_DEF_STEREO_COUNT>
1

> <PUBCHEM_BOND_UDEF_STEREO_COUNT>
0

> <PUBCHEM_ISOTOPIC_ATOM_COUNT>
0

> <PUBCHEM_COMPONENT_COUNT>
1

> <PUBCHEM_CACTVS_TAUTO_COUNT>
1

> <PUBCHEM_CONFORMER_ID>
00B6972E00000001

> <PUBCHEM_MMFF94_ENERGY>
17.4558

> <PUBCHEM_FEATURE_SELFOVERLAP>
30.561

> <PUBCHEM_SHAPE_FINGERPRINT>
15310529 11 17168151156138741257
18185500 45 18260828185329618442
21040471 1 17694793916929758273
23552423 10 18118692019273138170
23552449 11 17988347278111265313
24536 1 17775014534447481337
29004967 10 16630802209867730209
5084963 1 17458617883312541833

> <PUBCHEM_SHAPE_MULTIPOLES>
141.16
2.75
1.19
0.88
0.65
0.14
0.15
-0.48
0.36
0.08
-0.19
-0.39
-0.08
-0.05

> <PUBCHEM_SHAPE_SELFOVERLAP>
274.619

> <PUBCHEM_SHAPE_VOLUME>
84.6

> <PUBCHEM_COORDINATE_TYPE>
2
5
10

$$$$
